                              ZONEBUDGET Version 6
                             U.S. GEOLOGICAL SURVEY
                            VERSION 6.1.0 12/12/2019

 OPENED zbud.nam
 FILE TYPE:NAM   UNIT   22   STATUS:OLD                 
 FORMAT:FORMATTED              ACCESS:SEQUENTIAL          
 ACTION:READ                


 OPENED mf6-tv_hist.cbb
 FILE TYPE:BUD   UNIT   23   STATUS:OLD                 
 FORMAT:UNFORMATTED            ACCESS:STREAM              
 ACTION:READ                


 OPENED utils-zonebudget.zon
 FILE TYPE:ZON   UNIT   24   STATUS:OLD                 
 FORMAT:FORMATTED              ACCESS:SEQUENTIAL          
 ACTION:READ                


 OPENED mf6-tv_hist.dis.grb
 FILE TYPE:GRB   UNIT   25   STATUS:OLD                 
 FORMAT:UNFORMATTED            ACCESS:STREAM              
 ACTION:READ                


 OPENED zbud.csv
 FILE TYPE:CSV   UNIT   21   STATUS:REPLACE             
 FORMAT:FORMATTED              ACCESS:SEQUENTIAL          
 ACTION:READWRITE           

Reading budget file to determine number of terms per time step.
    30.4000              STO-SS                 
    30.4000        FLOW-JA-FACE                 
    30.4000          DATA-SPDIS NPF             
    30.4000                 WEL WEL-NY_CANAL    
    30.4000                 WEL WEL-TRIB_UND    
    30.4000                 WEL WEL-TRIB_UND_DP 
    30.4000                 WEL WEL-MUNI_MEAS   
    30.4000                 WEL WEL-PUMP_XTRA   
    30.4000                 WEL WEL-PUMP_IRR    
    30.4000                 WEL WEL-PUMP_SEMI   
    30.4000                 WEL WEL-INFIL_IRR   
    30.4000                 WEL WEL-INFIL_SEMI  
    30.4000                 WEL WEL-CANAL_B     
    30.4000                 WEL WEL-CANAL_A     
    30.4000                 DRN DRN_0           
    30.4000                 RIV RIV_0           
    30.4000                 RIV NYRIV           
    30.4000                 GHB GHB-LOWELL      
    61.4000              STO-SS                 
Detected 18 unique flow terms in budget file.

Processing Binary Grid File
  Detected regular MODFLOW grid (DIS)
  Detected VERSION 1
  Detected NTXT 16
  Detected LENTXT 100
  Detected NCELLS = 24960
  Detected NLAY = 6
  Detected NROW = 64
  Detected NCOL = 65
  Detected NJA = 58406
  Detected XORIGIN = 7372099.030000000
  Detected YORIGIN = 4382824.400000000
  Detected ANGROT = -2.000000000000000
  Detected double array DELR
  Detected double array DELC
  Detected double array TOP
  Detected double array BOTM
  Detected integer array IA
  Detected integer array JA
  Detected integer array IDOMAIN
  Detected integer array ICELLTYPE
Done processing Binary Grid File

Processing zone dimensions
    NCELLS = 24960
End processing zone dimensions

Processing zone griddata

 OPENED utils-zonebudget_zones-active.dat
 FILE TYPE:OPEN/CLOSE   UNIT 1000   STATUS:OLD                 
 FORMAT:FORMATTED              ACCESS:SEQUENTIAL          
 ACTION:READ                


    Successfully read zone array with NCELLS = 24960
    Minimum user-specified zone number is 1
    Maximum user-specified zone number is 1


               USER ZONE          ZONE NUMBER           CELL COUNT
    --------------------------------------------------------------
                       0                    0                13794
                       1                    1                11166
    --------------------------------------------------------------

End processing zone griddata

Reading records from budget file
    30.4000              STO-SS                 
    30.4000        FLOW-JA-FACE                 
    30.4000          DATA-SPDIS NPF             
    30.4000                 WEL WEL-NY_CANAL    
    30.4000                 WEL WEL-TRIB_UND    
    30.4000                 WEL WEL-TRIB_UND_DP 
    30.4000                 WEL WEL-MUNI_MEAS   
    30.4000                 WEL WEL-PUMP_XTRA   
    30.4000                 WEL WEL-PUMP_IRR    
    30.4000                 WEL WEL-PUMP_SEMI   
    30.4000                 WEL WEL-INFIL_IRR   
    30.4000                 WEL WEL-INFIL_SEMI  
    30.4000                 WEL WEL-CANAL_B     
    30.4000                 WEL WEL-CANAL_A     
    30.4000                 DRN DRN_0           
    30.4000                 RIV RIV_0           
    30.4000                 RIV NYRIV           
    30.4000                 GHB GHB-LOWELL      
Done reading records from budget file


  VOLUME BUDGET FOR ZONE 1 AT END OF TIME STEP    1, STRESS PERIOD   1
  ---------------------------------------------------------------------------------------------------

     CUMULATIVE VOLUME      L**3       RATES FOR THIS TIME STEP      L**3/T          PACKAGE/MODEL   
     ------------------                 ------------------------                     ----------------

           IN:                                      IN:
           ---                                      ---
              STO-SS =           0.0000                STO-SS =           0.0000                     
          DATA-SPDIS =           0.0000            DATA-SPDIS =           0.0000     NPF             
                 WEL =  1360840355.5460                   WEL =    44764485.3798     WEL-NY_CANAL    
                 WEL =   359506975.0534                   WEL =    11825887.3373     WEL-TRIB_UND    
                 WEL =     3520050.0812                   WEL =      115791.1211     WEL-TRIB_UND_DP 
                 WEL =           0.0000                   WEL =           0.0000     WEL-MUNI_MEAS   
                 WEL =     2052350.6363                   WEL =       67511.5341     WEL-PUMP_XTRA   
                 WEL =           0.0000                   WEL =           0.0000     WEL-PUMP_IRR    
                 WEL =           0.0000                   WEL =           0.0000     WEL-PUMP_SEMI   
                 WEL =  2190262071.9844                   WEL =    72048094.4732     WEL-INFIL_IRR   
                 WEL =   410396629.2679                   WEL =    13499889.1207     WEL-INFIL_SEMI  
                 WEL =  1856543102.7596                   WEL =    61070496.8013     WEL-CANAL_B     
                 WEL =   464232488.7106                   WEL =    15270805.5497     WEL-CANAL_A     
                 DRN =           0.0000                   DRN =           0.0000     DRN_0           
                 RIV =    24468944.1474                   RIV =      804899.4785     RIV_0           
                 RIV =      881821.3120                   RIV =       29007.2800     NYRIV           
                 GHB =    33506129.5301                   GHB =     1102175.3135     GHB-LOWELL      

            TOTAL IN =  6706210919.0288              TOTAL IN =   220599043.3891

          OUT:                                     OUT:
          ----                                     ----
              STO-SS =           0.0000                STO-SS =           0.0000                     
          DATA-SPDIS =           0.0000            DATA-SPDIS =           0.0000     NPF             
                 WEL =           0.0000                   WEL =           0.0000     WEL-NY_CANAL    
                 WEL =           0.0000                   WEL =           0.0000     WEL-TRIB_UND    
                 WEL =           0.0000                   WEL =           0.0000     WEL-TRIB_UND_DP 
                 WEL =   183512676.2678                   WEL =     6036601.1930     WEL-MUNI_MEAS   
                 WEL =     9427028.9780                   WEL =      310099.6374     WEL-PUMP_XTRA   
                 WEL =   170984237.5189                   WEL =     5624481.4973     WEL-PUMP_IRR    
                 WEL =     8413882.4508                   WEL =      276772.4490     WEL-PUMP_SEMI   
                 WEL =           0.0000                   WEL =           0.0000     WEL-INFIL_IRR   
                 WEL =        9139.4060                   WEL =         300.6384     WEL-INFIL_SEMI  
                 WEL =           0.0000                   WEL =           0.0000     WEL-CANAL_B     
                 WEL =           0.0000                   WEL =           0.0000     WEL-CANAL_A     
                 DRN =  3055462387.0350                   DRN =   100508631.1525     DRN_0           
                 RIV =  3278290248.7131                   RIV =   107838495.0235     RIV_0           
                 RIV =           0.0000                   RIV =           0.0000     NYRIV           
                 GHB =      111318.9353                   GHB =        3661.8071     GHB-LOWELL      

           TOTAL OUT =  6706210919.3048             TOTAL OUT =   220599043.3982

            IN - OUT =          -0.2760              IN - OUT =      -9.0789E-03

 PERCENT DISCREPANCY =          -0.00     PERCENT DISCREPANCY =          -0.00


Reading records from budget file
    61.4000              STO-SS                 
    61.4000        FLOW-JA-FACE                 
    61.4000          DATA-SPDIS NPF             
    61.4000                 WEL WEL-NY_CANAL    
    61.4000                 WEL WEL-TRIB_UND    
    61.4000                 WEL WEL-TRIB_UND_DP 
    61.4000                 WEL WEL-MUNI_MEAS   
    61.4000                 WEL WEL-PUMP_XTRA   
    61.4000                 WEL WEL-PUMP_IRR    
    61.4000                 WEL WEL-PUMP_SEMI   
    61.4000                 WEL WEL-INFIL_IRR   
    61.4000                 WEL WEL-INFIL_SEMI  
    61.4000                 WEL WEL-CANAL_B     
    61.4000                 WEL WEL-CANAL_A     
    61.4000                 DRN DRN_0           
    61.4000                 RIV RIV_0           
    61.4000                 RIV NYRIV           
    61.4000                 GHB GHB-LOWELL      
Done reading records from budget file


  VOLUME BUDGET FOR ZONE 1 AT END OF TIME STEP    1, STRESS PERIOD   2
  ---------------------------------------------------------------------------------------------------

     CUMULATIVE VOLUME      L**3       RATES FOR THIS TIME STEP      L**3/T          PACKAGE/MODEL   
     ------------------                 ------------------------                     ----------------

           IN:                                      IN:
           ---                                      ---
              STO-SS =  5147859145.8637                STO-SS =   166059972.4472                     
          DATA-SPDIS =           0.0000            DATA-SPDIS =           0.0000     NPF             
                 WEL =  1377563329.5934                   WEL =      539450.7757     WEL-NY_CANAL    
                 WEL =   663843270.2390                   WEL =     9817299.8447     WEL-TRIB_UND    
                 WEL =     7109574.8350                   WEL =      115791.1211     WEL-TRIB_UND_DP 
                 WEL =           0.0000                   WEL =           0.0000     WEL-MUNI_MEAS   
                 WEL =     2052350.6363                   WEL =           0.0000     WEL-PUMP_XTRA   
                 WEL =           0.0000                   WEL =           0.0000     WEL-PUMP_IRR    
                 WEL =           0.0000                   WEL =           0.0000     WEL-PUMP_SEMI   
                 WEL =  2190262071.9844                   WEL =           0.0000     WEL-INFIL_IRR   
                 WEL =   410396629.2679                   WEL =           0.0000     WEL-INFIL_SEMI  
                 WEL =  1856543102.7596                   WEL =           0.0000     WEL-CANAL_B     
                 WEL =   464232488.7106                   WEL =           0.0000     WEL-CANAL_A     
                 DRN =           0.0000                   DRN =           0.0000     DRN_0           
                 RIV =    68791681.1381                   RIV =     1429765.7094     RIV_0           
                 RIV =      881821.3120                   RIV =           0.0000     NYRIV           
                 GHB =    74697033.9298                   GHB =     1328738.8516     GHB-LOWELL      

            TOTAL IN = 12264232500.2698              TOTAL IN =   179291018.7497

          OUT:                                     OUT:
          ----                                     ----
              STO-SS =    89743893.7527                STO-SS =     2894964.3146                     
          DATA-SPDIS =           0.0000            DATA-SPDIS =           0.0000     NPF             
                 WEL =           0.0000                   WEL =           0.0000     WEL-NY_CANAL    
                 WEL =           0.0000                   WEL =           0.0000     WEL-TRIB_UND    
                 WEL =           0.0000                   WEL =           0.0000     WEL-TRIB_UND_DP 
                 WEL =   249496012.7886                   WEL =     2128494.7265     WEL-MUNI_MEAS   
                 WEL =    11808688.1968                   WEL =       76827.7167     WEL-PUMP_XTRA   
                 WEL =   170984237.5189                   WEL =           0.0000     WEL-PUMP_IRR    
                 WEL =     8413882.4508                   WEL =           0.0000     WEL-PUMP_SEMI   
                 WEL =           0.0000                   WEL =           0.0000     WEL-INFIL_IRR   
                 WEL =        9139.4060                   WEL =           0.0000     WEL-INFIL_SEMI  
                 WEL =           0.0000                   WEL =           0.0000     WEL-CANAL_B     
                 WEL =           0.0000                   WEL =           0.0000     WEL-CANAL_A     
                 DRN =  5619202212.6404                   DRN =    82701284.6969     DRN_0           
                 RIV =  6114455870.2638                   RIV =    91489213.5984     RIV_0           
                 RIV =           0.0000                   RIV =           0.0000     NYRIV           
                 GHB =      118563.7144                   GHB =         233.7026     GHB-LOWELL      

           TOTAL OUT = 12264232500.7324             TOTAL OUT =   179291018.7557

            IN - OUT =          -0.4626              IN - OUT =      -6.0199E-03

 PERCENT DISCREPANCY =          -0.00     PERCENT DISCREPANCY =          -0.00


Reading records from budget file
    89.4000              STO-SS                 
    89.4000        FLOW-JA-FACE                 
    89.4000          DATA-SPDIS NPF             
    89.4000                 WEL WEL-NY_CANAL    
    89.4000                 WEL WEL-TRIB_UND    
    89.4000                 WEL WEL-TRIB_UND_DP 
    89.4000                 WEL WEL-MUNI_MEAS   
    89.4000                 WEL WEL-PUMP_XTRA   
    89.4000                 WEL WEL-PUMP_IRR    
    89.4000                 WEL WEL-PUMP_SEMI   
    89.4000                 WEL WEL-INFIL_IRR   
    89.4000                 WEL WEL-INFIL_SEMI  
    89.4000                 WEL WEL-CANAL_B     
    89.4000                 WEL WEL-CANAL_A     
    89.4000                 DRN DRN_0           
    89.4000                 RIV RIV_0           
    89.4000                 RIV NYRIV           
    89.4000                 GHB GHB-LOWELL      
Done reading records from budget file


  VOLUME BUDGET FOR ZONE 1 AT END OF TIME STEP    1, STRESS PERIOD   3
  ---------------------------------------------------------------------------------------------------

     CUMULATIVE VOLUME      L**3       RATES FOR THIS TIME STEP      L**3/T          PACKAGE/MODEL   
     ------------------                 ------------------------                     ----------------

           IN:                                      IN:
           ---                                      ---
              STO-SS =  8167618498.3509                STO-SS =   107848548.3031                     
          DATA-SPDIS =           0.0000            DATA-SPDIS =           0.0000     NPF             
                 WEL =  2550643572.3657                   WEL =    41895722.9562     WEL-NY_CANAL    
                 WEL =  1536097131.8287                   WEL =    31151923.6282     WEL-TRIB_UND    
                 WEL =    10351726.2255                   WEL =      115791.1211     WEL-TRIB_UND_DP 
                 WEL =           0.0000                   WEL =           0.0000     WEL-MUNI_MEAS   
                 WEL =     2052350.6363                   WEL =           0.0000     WEL-PUMP_XTRA   
                 WEL =           0.0000                   WEL =           0.0000     WEL-PUMP_IRR    
                 WEL =           0.0000                   WEL =           0.0000     WEL-PUMP_SEMI   
                 WEL =  2190262071.9844                   WEL =           0.0000     WEL-INFIL_IRR   
                 WEL =   410396629.2679                   WEL =           0.0000     WEL-INFIL_SEMI  
                 WEL =  1856543102.7596                   WEL =           0.0000     WEL-CANAL_B     
                 WEL =   464232488.7106                   WEL =           0.0000     WEL-CANAL_A     
                 DRN =           0.0000                   DRN =           0.0000     DRN_0           
                 RIV =   148195215.2478                   RIV =     2835840.5039     RIV_0           
                 RIV =     1694025.1520                   RIV =       29007.2800     NYRIV           
                 GHB =   112165797.6199                   GHB =     1338170.1318     GHB-LOWELL      

            TOTAL IN = 17450252610.1493              TOTAL IN =   185215003.9243

          OUT:                                     OUT:
          ----                                     ----
              STO-SS =   793306345.8954                STO-SS =    25127230.4337                     
          DATA-SPDIS =           0.0000            DATA-SPDIS =           0.0000     NPF             
                 WEL =           0.0000                   WEL =           0.0000     WEL-NY_CANAL    
                 WEL =           0.0000                   WEL =           0.0000     WEL-TRIB_UND    
                 WEL =           0.0000                   WEL =           0.0000     WEL-TRIB_UND_DP 
                 WEL =   305108804.4236                   WEL =     1986171.1298     WEL-MUNI_MEAS   
                 WEL =    14183771.2741                   WEL =       84824.3956     WEL-PUMP_XTRA   
                 WEL =   170984237.5189                   WEL =           0.0000     WEL-PUMP_IRR    
                 WEL =     8413882.4508                   WEL =           0.0000     WEL-PUMP_SEMI   
                 WEL =           0.0000                   WEL =           0.0000     WEL-INFIL_IRR   
                 WEL =        9139.4060                   WEL =           0.0000     WEL-INFIL_SEMI  
                 WEL =           0.0000                   WEL =           0.0000     WEL-CANAL_B     
                 WEL =           0.0000                   WEL =           0.0000     WEL-CANAL_A     
                 DRN =  7753083628.0652                   DRN =    76210050.5509     DRN_0           
                 RIV =  8405038382.6471                   RIV =    81806518.2994     RIV_0           
                 RIV =           0.0000                   RIV =           0.0000     NYRIV           
                 GHB =      124419.0062                   GHB =         209.1176     GHB-LOWELL      

           TOTAL OUT = 17450252610.6873             TOTAL OUT =   185215003.9270

            IN - OUT =          -0.5380              IN - OUT =      -2.6936E-03

 PERCENT DISCREPANCY =          -0.00     PERCENT DISCREPANCY =          -0.00


Reading records from budget file
    120.400              STO-SS                 
    120.400        FLOW-JA-FACE                 
    120.400          DATA-SPDIS NPF             
    120.400                 WEL WEL-NY_CANAL    
    120.400                 WEL WEL-TRIB_UND    
    120.400                 WEL WEL-TRIB_UND_DP 
    120.400                 WEL WEL-MUNI_MEAS   
    120.400                 WEL WEL-PUMP_XTRA   
    120.400                 WEL WEL-PUMP_IRR    
    120.400                 WEL WEL-PUMP_SEMI   
    120.400                 WEL WEL-INFIL_IRR   
    120.400                 WEL WEL-INFIL_SEMI  
    120.400                 WEL WEL-CANAL_B     
    120.400                 WEL WEL-CANAL_A     
    120.400                 DRN DRN_0           
    120.400                 RIV RIV_0           
    120.400                 RIV NYRIV           
    120.400                 GHB GHB-LOWELL      
Done reading records from budget file


  VOLUME BUDGET FOR ZONE 1 AT END OF TIME STEP    1, STRESS PERIOD   4
  ---------------------------------------------------------------------------------------------------

     CUMULATIVE VOLUME      L**3       RATES FOR THIS TIME STEP      L**3/T          PACKAGE/MODEL   
     ------------------                 ------------------------                     ----------------

           IN:                                      IN:
           ---                                      ---
              STO-SS = 11169223556.3003                STO-SS =    96825969.6113                     
          DATA-SPDIS =           0.0000            DATA-SPDIS =           0.0000     NPF             
                 WEL =  4042146601.3222                   WEL =    48113000.9341     WEL-NY_CANAL    
                 WEL =  1920688076.0815                   WEL =    12406159.4920     WEL-TRIB_UND    
                 WEL =    13941250.9793                   WEL =      115791.1211     WEL-TRIB_UND_DP 
                 WEL =           0.0000                   WEL =           0.0000     WEL-MUNI_MEAS   
                 WEL =     2052350.6363                   WEL =           0.0000     WEL-PUMP_XTRA   
                 WEL =           0.0000                   WEL =           0.0000     WEL-PUMP_IRR    
                 WEL =           0.0000                   WEL =           0.0000     WEL-PUMP_SEMI   
                 WEL =  2216208661.7987                   WEL =      836986.7682     WEL-INFIL_IRR   
                 WEL =   415085709.2196                   WEL =      151260.6436     WEL-INFIL_SEMI  
                 WEL =  1871692027.4994                   WEL =      488674.9916     WEL-CANAL_B     
                 WEL =   468020553.1769                   WEL =      122195.6279     WEL-CANAL_A     
                 DRN =           0.0000                   DRN =           0.0000     DRN_0           
                 RIV =   487913549.8727                   RIV =    10958655.9556     RIV_0           
                 RIV =     2593250.8320                   RIV =       29007.2800     NYRIV           
                 GHB =   161301487.1043                   GHB =     1585022.2414     GHB-LOWELL      

            TOTAL IN = 22770867074.8231              TOTAL IN =   171632724.6669

          OUT:                                     OUT:
          ----                                     ----
              STO-SS =  1566343355.7326                STO-SS =    24936677.7367                     
          DATA-SPDIS =           0.0000            DATA-SPDIS =           0.0000     NPF             
                 WEL =           0.0000                   WEL =           0.0000     WEL-NY_CANAL    
                 WEL =           0.0000                   WEL =           0.0000     WEL-TRIB_UND    
                 WEL =           0.0000                   WEL =           0.0000     WEL-TRIB_UND_DP 
                 WEL =   379488370.6680                   WEL =     2399340.8466     WEL-MUNI_MEAS   
                 WEL =    16563165.3775                   WEL =       76754.6485     WEL-PUMP_XTRA   
                 WEL =   184168269.2042                   WEL =      425291.3447     WEL-PUMP_IRR    
                 WEL =    13527053.0581                   WEL =      164940.9873     WEL-PUMP_SEMI   
                 WEL =           0.0000                   WEL =           0.0000     WEL-INFIL_IRR   
                 WEL =        9754.1711                   WEL =          19.8311     WEL-INFIL_SEMI  
                 WEL =           0.0000                   WEL =           0.0000     WEL-CANAL_B     
                 WEL =           0.0000                   WEL =           0.0000     WEL-CANAL_A     
                 DRN =  9972478021.1605                   DRN =    71593367.5192     DRN_0           
                 RIV = 10638158798.1884                   RIV =    72036142.4368     RIV_0           
                 RIV =           0.0000                   RIV =           0.0000     NYRIV           
                 GHB =      130287.9082                   GHB =         189.3194     GHB-LOWELL      

           TOTAL OUT = 22770867075.4685             TOTAL OUT =   171632724.6704

            IN - OUT =          -0.6454              IN - OUT =      -3.4624E-03

 PERCENT DISCREPANCY =          -0.00     PERCENT DISCREPANCY =          -0.00


Reading records from budget file
    150.400              STO-SS                 
    150.400        FLOW-JA-FACE                 
    150.400          DATA-SPDIS NPF             
    150.400                 WEL WEL-NY_CANAL    
    150.400                 WEL WEL-TRIB_UND    
    150.400                 WEL WEL-TRIB_UND_DP 
    150.400                 WEL WEL-MUNI_MEAS   
    150.400                 WEL WEL-PUMP_XTRA   
    150.400                 WEL WEL-PUMP_IRR    
    150.400                 WEL WEL-PUMP_SEMI   
    150.400                 WEL WEL-INFIL_IRR   
    150.400                 WEL WEL-INFIL_SEMI  
    150.400                 WEL WEL-CANAL_B     
    150.400                 WEL WEL-CANAL_A     
    150.400                 DRN DRN_0           
    150.400                 RIV RIV_0           
    150.400                 RIV NYRIV           
    150.400                 GHB GHB-LOWELL      
Done reading records from budget file


  VOLUME BUDGET FOR ZONE 1 AT END OF TIME STEP    1, STRESS PERIOD   5
  ---------------------------------------------------------------------------------------------------

     CUMULATIVE VOLUME      L**3       RATES FOR THIS TIME STEP      L**3/T          PACKAGE/MODEL   
     ------------------                 ------------------------                     ----------------

           IN:                                      IN:
           ---                                      ---
              STO-SS = 12751175110.6707                STO-SS =    52731718.4790                     
          DATA-SPDIS =           0.0000            DATA-SPDIS =           0.0000     NPF             
                 WEL =  5799818781.0906                   WEL =    58589072.6589     WEL-NY_CANAL    
                 WEL =  2201670449.8342                   WEL =     9366079.1251     WEL-TRIB_UND    
                 WEL =    17414984.6120                   WEL =      115791.1211     WEL-TRIB_UND_DP 
                 WEL =           0.0000                   WEL =           0.0000     WEL-MUNI_MEAS   
                 WEL =     2052350.6363                   WEL =           0.0000     WEL-PUMP_XTRA   
                 WEL =           0.0000                   WEL =           0.0000     WEL-PUMP_IRR    
                 WEL =           0.0000                   WEL =           0.0000     WEL-PUMP_SEMI   
                 WEL =  4189267750.7753                   WEL =    65768636.2992     WEL-INFIL_IRR   
                 WEL =   773072370.7101                   WEL =    11932888.7163     WEL-INFIL_SEMI  
                 WEL =  3028842220.2171                   WEL =    38571673.0906     WEL-CANAL_B     
                 WEL =   757371751.5000                   WEL =     9645039.9441     WEL-CANAL_A     
                 DRN =           0.0000                   DRN =           0.0000     DRN_0           
                 RIV =   538127023.2878                   RIV =     1673782.4472     RIV_0           
                 RIV =     3463469.2320                   RIV =       29007.2800     NYRIV           
                 GHB =   209316571.0699                   GHB =     1600502.7989     GHB-LOWELL      

            TOTAL IN = 30271592833.6359              TOTAL IN =   250024191.9604

          OUT:                                     OUT:
          ----                                     ----
              STO-SS =  2616080381.0229                STO-SS =    34991234.1763                     
          DATA-SPDIS =           0.0000            DATA-SPDIS =           0.0000     NPF             
                 WEL =           0.0000                   WEL =           0.0000     WEL-NY_CANAL    
                 WEL =           0.0000                   WEL =           0.0000     WEL-TRIB_UND    
                 WEL =           0.0000                   WEL =           0.0000     WEL-TRIB_UND_DP 
                 WEL =   467691294.4296                   WEL =     2940097.4587     WEL-MUNI_MEAS   
                 WEL =    18940513.5702                   WEL =       79244.9398     WEL-PUMP_XTRA   
                 WEL =  1167678183.9335                   WEL =    32783663.8243     WEL-PUMP_IRR    
                 WEL =   395913432.2782                   WEL =    12746212.6407     WEL-PUMP_SEMI   
                 WEL =           0.0000                   WEL =           0.0000     WEL-INFIL_IRR   
                 WEL =       55827.2753                   WEL =        1535.7701     WEL-INFIL_SEMI  
                 WEL =           0.0000                   WEL =           0.0000     WEL-CANAL_B     
                 WEL =           0.0000                   WEL =           0.0000     WEL-CANAL_A     
                 DRN = 12351783289.7369                   DRN =    79310175.6192     DRN_0           
                 RIV = 13253314236.5819                   RIV =    87171847.9465     RIV_0           
                 RIV =           0.0000                   RIV =           0.0000     NYRIV           
                 GHB =      135675.5242                   GHB =         179.5872     GHB-LOWELL      

           TOTAL OUT = 30271592834.3527             TOTAL OUT =   250024191.9628

            IN - OUT =          -0.7168              IN - OUT =      -2.3805E-03

 PERCENT DISCREPANCY =          -0.00     PERCENT DISCREPANCY =          -0.00


Reading records from budget file
    181.400              STO-SS                 
    181.400        FLOW-JA-FACE                 
    181.400          DATA-SPDIS NPF             
    181.400                 WEL WEL-NY_CANAL    
    181.400                 WEL WEL-TRIB_UND    
    181.400                 WEL WEL-TRIB_UND_DP 
    181.400                 WEL WEL-MUNI_MEAS   
    181.400                 WEL WEL-PUMP_XTRA   
    181.400                 WEL WEL-PUMP_IRR    
    181.400                 WEL WEL-PUMP_SEMI   
    181.400                 WEL WEL-INFIL_IRR   
    181.400                 WEL WEL-INFIL_SEMI  
    181.400                 WEL WEL-CANAL_B     
    181.400                 WEL WEL-CANAL_A     
    181.400                 DRN DRN_0           
    181.400                 RIV RIV_0           
    181.400                 RIV NYRIV           
    181.400                 GHB GHB-LOWELL      
Done reading records from budget file


  VOLUME BUDGET FOR ZONE 1 AT END OF TIME STEP    1, STRESS PERIOD   6
  ---------------------------------------------------------------------------------------------------

     CUMULATIVE VOLUME      L**3       RATES FOR THIS TIME STEP      L**3/T          PACKAGE/MODEL   
     ------------------                 ------------------------                     ----------------

           IN:                                      IN:
           ---                                      ---
              STO-SS = 13386026860.1427                STO-SS =    20479088.6926                     
          DATA-SPDIS =           0.0000            DATA-SPDIS =           0.0000     NPF             
                 WEL =  9657122829.2636                   WEL =   124429162.8443     WEL-NY_CANAL    
                 WEL =  2438574002.1552                   WEL =     7642050.0749     WEL-TRIB_UND    
                 WEL =    21004509.3658                   WEL =      115791.1211     WEL-TRIB_UND_DP 
                 WEL =           0.0000                   WEL =           0.0000     WEL-MUNI_MEAS   
                 WEL =     2052350.6363                   WEL =           0.0000     WEL-PUMP_XTRA   
                 WEL =           0.0000                   WEL =           0.0000     WEL-PUMP_IRR    
                 WEL =           0.0000                   WEL =           0.0000     WEL-PUMP_SEMI   
                 WEL =  8304457231.8732                   WEL =   132748047.7774     WEL-INFIL_IRR   
                 WEL =  1622752518.4191                   WEL =    27409037.0229     WEL-INFIL_SEMI  
                 WEL =  5838127164.0088                   WEL =    90622094.9610     WEL-CANAL_B     
                 WEL =  1459847512.5698                   WEL =    22660508.4216     WEL-CANAL_A     
                 DRN =           0.0000                   DRN =           0.0000     DRN_0           
                 RIV =   566664718.9552                   RIV =      920570.8280     RIV_0           
                 RIV =     4362694.9120                   RIV =       29007.2800     NYRIV           
                 GHB =   261340688.4836                   GHB =     1678197.3359     GHB-LOWELL      

            TOTAL IN = 43562333080.7851              TOTAL IN =   428733556.3597

          OUT:                                     OUT:
          ----                                     ----
              STO-SS =  8074883089.8402                STO-SS =   176090409.9618                     
          DATA-SPDIS =           0.0000            DATA-SPDIS =           0.0000     NPF             
                 WEL =           0.0000                   WEL =           0.0000     WEL-NY_CANAL    
                 WEL =           0.0000                   WEL =           0.0000     WEL-TRIB_UND    
                 WEL =           0.0000                   WEL =           0.0000     WEL-TRIB_UND_DP 
                 WEL =   618778655.6939                   WEL =     4873785.8472     WEL-MUNI_MEAS   
                 WEL =    21319907.6736                   WEL =       76754.6485     WEL-PUMP_XTRA   
                 WEL =  1791300061.7740                   WEL =    20116834.7690     WEL-PUMP_IRR    
                 WEL =   710360702.1530                   WEL =    10143460.3185     WEL-PUMP_SEMI   
                 WEL =           0.0000                   WEL =           0.0000     WEL-INFIL_IRR   
                 WEL =      100848.5492                   WEL =        1452.2992     WEL-INFIL_SEMI  
                 WEL =           0.0000                   WEL =           0.0000     WEL-CANAL_B     
                 WEL =           0.0000                   WEL =           0.0000     WEL-CANAL_A     
                 DRN = 15435626759.7136                   DRN =    99478821.6122     DRN_0           
                 RIV = 16909820507.0318                   RIV =   117951815.1758     RIV_0           
                 RIV =           0.0000                   RIV =           0.0000     NYRIV           
                 GHB =      142549.0840                   GHB =         221.7277     GHB-LOWELL      

           TOTAL OUT = 43562333081.5133             TOTAL OUT =   428733556.3600

            IN - OUT =          -0.7282              IN - OUT =      -3.6889E-04

 PERCENT DISCREPANCY =          -0.00     PERCENT DISCREPANCY =          -0.00


Reading records from budget file
    211.400              STO-SS                 
    211.400        FLOW-JA-FACE                 
    211.400          DATA-SPDIS NPF             
    211.400                 WEL WEL-NY_CANAL    
    211.400                 WEL WEL-TRIB_UND    
    211.400                 WEL WEL-TRIB_UND_DP 
    211.400                 WEL WEL-MUNI_MEAS   
    211.400                 WEL WEL-PUMP_XTRA   
    211.400                 WEL WEL-PUMP_IRR    
    211.400                 WEL WEL-PUMP_SEMI   
    211.400                 WEL WEL-INFIL_IRR   
    211.400                 WEL WEL-INFIL_SEMI  
    211.400                 WEL WEL-CANAL_B     
    211.400                 WEL WEL-CANAL_A     
    211.400                 DRN DRN_0           
    211.400                 RIV RIV_0           
    211.400                 RIV NYRIV           
    211.400                 GHB GHB-LOWELL      
Done reading records from budget file


  VOLUME BUDGET FOR ZONE 1 AT END OF TIME STEP    1, STRESS PERIOD   7
  ---------------------------------------------------------------------------------------------------

     CUMULATIVE VOLUME      L**3       RATES FOR THIS TIME STEP      L**3/T          PACKAGE/MODEL   
     ------------------                 ------------------------                     ----------------

           IN:                                      IN:
           ---                                      ---
              STO-SS = 14471662773.9157                STO-SS =    36187863.7924                     
          DATA-SPDIS =           0.0000            DATA-SPDIS =           0.0000     NPF             
                 WEL = 14742786457.0819                   WEL =   169522120.9273     WEL-NY_CANAL    
                 WEL =  2512751065.3618                   WEL =     2472568.7736     WEL-TRIB_UND    
                 WEL =    24478242.9985                   WEL =      115791.1211     WEL-TRIB_UND_DP 
                 WEL =           0.0000                   WEL =           0.0000     WEL-MUNI_MEAS   
                 WEL =     2052350.6363                   WEL =           0.0000     WEL-PUMP_XTRA   
                 WEL =           0.0000                   WEL =           0.0000     WEL-PUMP_IRR    
                 WEL =           0.0000                   WEL =           0.0000     WEL-PUMP_SEMI   
                 WEL = 12794603643.5551                   WEL =   149671547.0561     WEL-INFIL_IRR   
                 WEL =  2266866898.8204                   WEL =    21470479.3467     WEL-INFIL_SEMI  
                 WEL =  9241393092.8133                   WEL =   113442197.6268     WEL-CANAL_B     
                 WEL =  2310851191.7662                   WEL =    28366789.3065     WEL-CANAL_A     
                 DRN =           0.0000                   DRN =           0.0000     DRN_0           
                 RIV =   611316840.0862                   RIV =     1488404.0377     RIV_0           
                 RIV =     5232913.3120                   RIV =       29007.2800     NYRIV           
                 GHB =   304897491.4263                   GHB =     1451893.4314     GHB-LOWELL      

            TOTAL IN = 59288892961.7737              TOTAL IN =   524218662.6996

          OUT:                                     OUT:
          ----                                     ----
              STO-SS = 14282942322.4321                STO-SS =   206935307.7531                     
          DATA-SPDIS =           0.0000            DATA-SPDIS =           0.0000     NPF             
                 WEL =           0.0000                   WEL =           0.0000     WEL-NY_CANAL    
                 WEL =           0.0000                   WEL =           0.0000     WEL-TRIB_UND    
                 WEL =           0.0000                   WEL =           0.0000     WEL-TRIB_UND_DP 
                 WEL =   855639840.6711                   WEL =     7895372.8326     WEL-MUNI_MEAS   
                 WEL =    23697255.8664                   WEL =       79244.9398     WEL-PUMP_XTRA   
                 WEL =  3276087721.3531                   WEL =    49492921.9860     WEL-PUMP_IRR    
                 WEL =  1273609821.5706                   WEL =    18774970.6473     WEL-PUMP_SEMI   
                 WEL =           0.0000                   WEL =           0.0000     WEL-INFIL_IRR   
                 WEL =      146869.7744                   WEL =        1534.0408     WEL-INFIL_SEMI  
                 WEL =           0.0000                   WEL =           0.0000     WEL-CANAL_B     
                 WEL =           0.0000                   WEL =           0.0000     WEL-CANAL_A     
                 DRN = 18803722772.5887                   DRN =   112269867.0958     DRN_0           
                 RIV = 20772899781.2656                   RIV =   128769309.1411     RIV_0           
                 RIV =           0.0000                   RIV =           0.0000     NYRIV           
                 GHB =      146576.9905                   GHB =         134.2636     GHB-LOWELL      

           TOTAL OUT = 59288892962.5126             TOTAL OUT =   524218662.7000

            IN - OUT =          -0.7389              IN - OUT =      -3.5536E-04

 PERCENT DISCREPANCY =          -0.00     PERCENT DISCREPANCY =          -0.00


Reading records from budget file
    242.400              STO-SS                 
    242.400        FLOW-JA-FACE                 
    242.400          DATA-SPDIS NPF             
    242.400                 WEL WEL-NY_CANAL    
    242.400                 WEL WEL-TRIB_UND    
    242.400                 WEL WEL-TRIB_UND_DP 
    242.400                 WEL WEL-MUNI_MEAS   
    242.400                 WEL WEL-PUMP_XTRA   
    242.400                 WEL WEL-PUMP_IRR    
    242.400                 WEL WEL-PUMP_SEMI   
    242.400                 WEL WEL-INFIL_IRR   
    242.400                 WEL WEL-INFIL_SEMI  
    242.400                 WEL WEL-CANAL_B     
    242.400                 WEL WEL-CANAL_A     
    242.400                 DRN DRN_0           
    242.400                 RIV RIV_0           
    242.400                 RIV NYRIV           
    242.400                 GHB GHB-LOWELL      
Done reading records from budget file


  VOLUME BUDGET FOR ZONE 1 AT END OF TIME STEP    1, STRESS PERIOD   8
  ---------------------------------------------------------------------------------------------------

     CUMULATIVE VOLUME      L**3       RATES FOR THIS TIME STEP      L**3/T          PACKAGE/MODEL   
     ------------------                 ------------------------                     ----------------

           IN:                                      IN:
           ---                                      ---
              STO-SS = 15314085410.0136                STO-SS =    27174923.7451                     
          DATA-SPDIS =           0.0000            DATA-SPDIS =           0.0000     NPF             
                 WEL = 18605445208.9962                   WEL =   124601895.2230     WEL-NY_CANAL    
                 WEL =  2544027292.1296                   WEL =     1008910.5409     WEL-TRIB_UND    
                 WEL =    28067767.7523                   WEL =      115791.1211     WEL-TRIB_UND_DP 
                 WEL =           0.0000                   WEL =           0.0000     WEL-MUNI_MEAS   
                 WEL =     2052350.6363                   WEL =           0.0000     WEL-PUMP_XTRA   
                 WEL =           0.0000                   WEL =           0.0000     WEL-PUMP_IRR    
                 WEL =           0.0000                   WEL =           0.0000     WEL-PUMP_SEMI   
                 WEL = 17726465238.1752                   WEL =   159092309.5039     WEL-INFIL_IRR   
                 WEL =  2965855639.2812                   WEL =    22548023.8858     WEL-INFIL_SEMI  
                 WEL = 12860619753.9174                   WEL =   116749247.1324     WEL-CANAL_B     
                 WEL =  3215856931.5334                   WEL =    29193733.5409     WEL-CANAL_A     
                 DRN =           0.0000                   DRN =           0.0000     DRN_0           
                 RIV =   641934066.8986                   RIV =      987652.4778     RIV_0           
                 RIV =     6132138.9920                   RIV =       29007.2800     NYRIV           
                 GHB =   336394974.2743                   GHB =     1016047.8338     GHB-LOWELL      

            TOTAL IN = 74246936772.6001              TOTAL IN =   482517542.2847

          OUT:                                     OUT:
          ----                                     ----
              STO-SS = 19657678397.5336                STO-SS =   173378583.0678                     
          DATA-SPDIS =           0.0000            DATA-SPDIS =           0.0000     NPF             
                 WEL =           0.0000                   WEL =           0.0000     WEL-NY_CANAL    
                 WEL =           0.0000                   WEL =           0.0000     WEL-TRIB_UND    
                 WEL =           0.0000                   WEL =           0.0000     WEL-TRIB_UND_DP 
                 WEL =  1099063056.8593                   WEL =     7852361.8125     WEL-MUNI_MEAS   
                 WEL =    26075627.0144                   WEL =       76721.6499     WEL-PUMP_XTRA   
                 WEL =  4124362949.1181                   WEL =    27363717.0247     WEL-PUMP_IRR    
                 WEL =  1637708404.8739                   WEL =    11745115.5904     WEL-PUMP_SEMI   
                 WEL =       11663.5563                   WEL =         376.2438     WEL-INFIL_IRR   
                 WEL =      193494.0001                   WEL =        1504.0073     WEL-INFIL_SEMI  
                 WEL =           0.0000                   WEL =           0.0000     WEL-CANAL_B     
                 WEL =           0.0000                   WEL =           0.0000     WEL-CANAL_A     
                 DRN = 22499746898.4383                   DRN =   119226584.7048     DRN_0           
                 RIV = 25201903072.3752                   RIV =   142871073.9068     RIV_0           
                 RIV =           0.0000                   RIV =           0.0000     NYRIV           
                 GHB =      193209.4750                   GHB =        1504.2737     GHB-LOWELL      

           TOTAL OUT = 74246936773.2443             TOTAL OUT =   482517542.2817

            IN - OUT =          -0.6442              IN - OUT =       3.0554E-03

 PERCENT DISCREPANCY =          -0.00     PERCENT DISCREPANCY =           0.00


Reading records from budget file
    273.400              STO-SS                 
    273.400        FLOW-JA-FACE                 
    273.400          DATA-SPDIS NPF             
    273.400                 WEL WEL-NY_CANAL    
    273.400                 WEL WEL-TRIB_UND    
    273.400                 WEL WEL-TRIB_UND_DP 
    273.400                 WEL WEL-MUNI_MEAS   
    273.400                 WEL WEL-PUMP_XTRA   
    273.400                 WEL WEL-PUMP_IRR    
    273.400                 WEL WEL-PUMP_SEMI   
    273.400                 WEL WEL-INFIL_IRR   
    273.400                 WEL WEL-INFIL_SEMI  
    273.400                 WEL WEL-CANAL_B     
    273.400                 WEL WEL-CANAL_A     
    273.400                 DRN DRN_0           
    273.400                 RIV RIV_0           
    273.400                 RIV NYRIV           
    273.400                 GHB GHB-LOWELL      
Done reading records from budget file


  VOLUME BUDGET FOR ZONE 1 AT END OF TIME STEP    1, STRESS PERIOD   9
  ---------------------------------------------------------------------------------------------------

     CUMULATIVE VOLUME      L**3       RATES FOR THIS TIME STEP      L**3/T          PACKAGE/MODEL   
     ------------------                 ------------------------                     ----------------

           IN:                                      IN:
           ---                                      ---
              STO-SS = 15797137170.7283                STO-SS =    15582314.8618                     
          DATA-SPDIS =           0.0000            DATA-SPDIS =           0.0000     NPF             
                 WEL = 22505708383.1842                   WEL =   125814941.1028     WEL-NY_CANAL    
                 WEL =  2565955421.8912                   WEL =      707359.0246     WEL-TRIB_UND    
                 WEL =    31657292.5061                   WEL =      115791.1211     WEL-TRIB_UND_DP 
                 WEL =           0.0000                   WEL =           0.0000     WEL-MUNI_MEAS   
                 WEL =     2052350.6363                   WEL =           0.0000     WEL-PUMP_XTRA   
                 WEL =           0.0000                   WEL =           0.0000     WEL-PUMP_IRR    
                 WEL =           0.0000                   WEL =           0.0000     WEL-PUMP_SEMI   
                 WEL = 22171284441.9359                   WEL =   143381264.6374     WEL-INFIL_IRR   
                 WEL =  3559290228.0989                   WEL =    19143051.2522     WEL-INFIL_SEMI  
                 WEL = 16091247020.8893                   WEL =   104213782.8055     WEL-CANAL_B     
                 WEL =  4023691448.1365                   WEL =    26059177.9549     WEL-CANAL_A     
                 DRN =           0.0000                   DRN =           0.0000     DRN_0           
                 RIV =   697119235.2375                   RIV =     1780166.7206     RIV_0           
                 RIV =     7031364.6720                   RIV =       29007.2800     NYRIV           
                 GHB =   358489359.0285                   GHB =      712722.0888     GHB-LOWELL      

            TOTAL IN = 87810663716.9446              TOTAL IN =   437539578.8498

          OUT:                                     OUT:
          ----                                     ----
              STO-SS = 23870488829.1398                STO-SS =   135897110.6970                     
          DATA-SPDIS =           0.0000            DATA-SPDIS =           0.0000     NPF             
                 WEL =           0.0000                   WEL =           0.0000     WEL-NY_CANAL    
                 WEL =           0.0000                   WEL =           0.0000     WEL-TRIB_UND    
                 WEL =           0.0000                   WEL =           0.0000     WEL-TRIB_UND_DP 
                 WEL =  1315547827.2113                   WEL =     6983379.6888     WEL-MUNI_MEAS   
                 WEL =    28455021.1178                   WEL =       76754.6485     WEL-PUMP_XTRA   
                 WEL =  4955428324.3667                   WEL =    26808560.4919     WEL-PUMP_IRR    
                 WEL =  2031733744.9520                   WEL =    12710494.8412     WEL-PUMP_SEMI   
                 WEL =       24783.5571                   WEL =         423.2258     WEL-INFIL_IRR   
                 WEL =      240144.7537                   WEL =        1504.8630     WEL-INFIL_SEMI  
                 WEL =           0.0000                   WEL =           0.0000     WEL-CANAL_B     
                 WEL =           0.0000                   WEL =           0.0000     WEL-CANAL_A     
                 DRN = 26305463120.8695                   DRN =   122765039.4333     DRN_0           
                 RIV = 29303081509.1668                   RIV =   132296078.6062     RIV_0           
                 RIV =           0.0000                   RIV =           0.0000     NYRIV           
                 GHB =      200412.4742                   GHB =         232.3548     GHB-LOWELL      

           TOTAL OUT = 87810663717.6089             TOTAL OUT =   437539578.8505

            IN - OUT =          -0.6643              IN - OUT =      -6.4957E-04

 PERCENT DISCREPANCY =          -0.00     PERCENT DISCREPANCY =          -0.00


Reading records from budget file
    303.400              STO-SS                 
    303.400        FLOW-JA-FACE                 
    303.400          DATA-SPDIS NPF             
    303.400                 WEL WEL-NY_CANAL    
    303.400                 WEL WEL-TRIB_UND    
    303.400                 WEL WEL-TRIB_UND_DP 
    303.400                 WEL WEL-MUNI_MEAS   
    303.400                 WEL WEL-PUMP_XTRA   
    303.400                 WEL WEL-PUMP_IRR    
    303.400                 WEL WEL-PUMP_SEMI   
    303.400                 WEL WEL-INFIL_IRR   
    303.400                 WEL WEL-INFIL_SEMI  
    303.400                 WEL WEL-CANAL_B     
    303.400                 WEL WEL-CANAL_A     
    303.400                 DRN DRN_0           
    303.400                 RIV RIV_0           
    303.400                 RIV NYRIV           
    303.400                 GHB GHB-LOWELL      
Done reading records from budget file


  VOLUME BUDGET FOR ZONE 1 AT END OF TIME STEP    1, STRESS PERIOD  10
  ---------------------------------------------------------------------------------------------------

     CUMULATIVE VOLUME      L**3       RATES FOR THIS TIME STEP      L**3/T          PACKAGE/MODEL   
     ------------------                 ------------------------                     ----------------

           IN:                                      IN:
           ---                                      ---
              STO-SS = 17132009603.6045                STO-SS =    44495747.7625                     
          DATA-SPDIS =           0.0000            DATA-SPDIS =           0.0000     NPF             
                 WEL = 23915998753.0635                   WEL =    47009678.9960     WEL-NY_CANAL    
                 WEL =  3078166534.3541                   WEL =    17073703.7488     WEL-TRIB_UND    
                 WEL =    35131026.1388                   WEL =      115791.1211     WEL-TRIB_UND_DP 
                 WEL =           0.0000                   WEL =           0.0000     WEL-MUNI_MEAS   
                 WEL =     2052350.6363                   WEL =           0.0000     WEL-PUMP_XTRA   
                 WEL =           0.0000                   WEL =           0.0000     WEL-PUMP_IRR    
                 WEL =           0.0000                   WEL =           0.0000     WEL-PUMP_SEMI   
                 WEL = 25417364477.8373                   WEL =   108202667.8634     WEL-INFIL_IRR   
                 WEL =  4085049223.3928                   WEL =    17525299.8431     WEL-INFIL_SEMI  
                 WEL = 18049856458.8030                   WEL =    65286981.2638     WEL-CANAL_B     
                 WEL =  4513451539.3572                   WEL =    16325336.3740     WEL-CANAL_A     
                 DRN =           0.0000                   DRN =           0.0000     DRN_0           
                 RIV =   712155535.4323                   RIV =      501210.0065     RIV_0           
                 RIV =     7901583.0720                   RIV =       29007.2800     NYRIV           
                 GHB =   385590221.6906                   GHB =      903362.0887     GHB-LOWELL      

            TOTAL IN = 97334727307.3824              TOTAL IN =   317468786.3479

          OUT:                                     OUT:
          ----                                     ----
              STO-SS = 25972093032.0021                STO-SS =    70053473.4287                     
          DATA-SPDIS =           0.0000            DATA-SPDIS =           0.0000     NPF             
                 WEL =           0.0000                   WEL =           0.0000     WEL-NY_CANAL    
                 WEL =           0.0000                   WEL =           0.0000     WEL-TRIB_UND    
                 WEL =           0.0000                   WEL =           0.0000     WEL-TRIB_UND_DP 
                 WEL =  1428159212.9289                   WEL =     3753712.8573     WEL-MUNI_MEAS   
                 WEL =    30832369.3105                   WEL =       79244.9398     WEL-PUMP_XTRA   
                 WEL =  4986363701.3455                   WEL =     1031179.2326     WEL-PUMP_IRR    
                 WEL =  2037167669.9254                   WEL =      181130.8324     WEL-PUMP_SEMI   
                 WEL =       65971.3388                   WEL =        1372.9261     WEL-INFIL_IRR   
                 WEL =      286776.6937                   WEL =        1554.3980     WEL-INFIL_SEMI  
                 WEL =           0.0000                   WEL =           0.0000     WEL-CANAL_B     
                 WEL =           0.0000                   WEL =           0.0000     WEL-CANAL_A     
                 DRN = 29826633920.7948                   DRN =   117372359.9975     DRN_0           
                 RIV = 33052885690.2805                   RIV =   124993472.7038     RIV_0           
                 RIV =           0.0000                   RIV =           0.0000     NYRIV           
                 GHB =      238963.4286                   GHB =        1285.0318     GHB-LOWELL      

           TOTAL OUT = 97334727308.0489             TOTAL OUT =   317468786.3480

            IN - OUT =          -0.6664              IN - OUT =      -7.0810E-05

 PERCENT DISCREPANCY =          -0.00     PERCENT DISCREPANCY =          -0.00


Reading records from budget file
    334.400              STO-SS                 
    334.400        FLOW-JA-FACE                 
    334.400          DATA-SPDIS NPF             
    334.400                 WEL WEL-NY_CANAL    
    334.400                 WEL WEL-TRIB_UND    
    334.400                 WEL WEL-TRIB_UND_DP 
    334.400                 WEL WEL-MUNI_MEAS   
    334.400                 WEL WEL-PUMP_XTRA   
    334.400                 WEL WEL-PUMP_IRR    
    334.400                 WEL WEL-PUMP_SEMI   
    334.400                 WEL WEL-INFIL_IRR   
    334.400                 WEL WEL-INFIL_SEMI  
    334.400                 WEL WEL-CANAL_B     
    334.400                 WEL WEL-CANAL_A     
    334.400                 DRN DRN_0           
    334.400                 RIV RIV_0           
    334.400                 RIV NYRIV           
    334.400                 GHB GHB-LOWELL      
Done reading records from budget file


  VOLUME BUDGET FOR ZONE 1 AT END OF TIME STEP    1, STRESS PERIOD  11
  ---------------------------------------------------------------------------------------------------

     CUMULATIVE VOLUME      L**3       RATES FOR THIS TIME STEP      L**3/T          PACKAGE/MODEL   
     ------------------                 ------------------------                     ----------------

           IN:                                      IN:
           ---                                      ---
              STO-SS = 22950106243.7405                STO-SS =   187680536.7786                     
          DATA-SPDIS =           0.0000            DATA-SPDIS =           0.0000     NPF             
                 WEL = 23975410388.0585                   WEL =     1916504.3547     WEL-NY_CANAL    
                 WEL =  3134917592.3364                   WEL =     1830679.2898     WEL-TRIB_UND    
                 WEL =    38720550.8927                   WEL =      115791.1211     WEL-TRIB_UND_DP 
                 WEL =           0.0000                   WEL =           0.0000     WEL-MUNI_MEAS   
                 WEL =     2052350.6363                   WEL =           0.0000     WEL-PUMP_XTRA   
                 WEL =           0.0000                   WEL =           0.0000     WEL-PUMP_IRR    
                 WEL =           0.0000                   WEL =           0.0000     WEL-PUMP_SEMI   
                 WEL = 26649231985.9587                   WEL =    39737661.5523     WEL-INFIL_IRR   
                 WEL =  4300986462.5780                   WEL =     6965717.3931     WEL-INFIL_SEMI  
                 WEL = 18770702973.7747                   WEL =    23253113.3862     WEL-CANAL_B     
                 WEL =  4693702817.1682                   WEL =     5814557.3487     WEL-CANAL_A     
                 DRN =           0.0000                   DRN =           0.0000     DRN_0           
                 RIV =   773699946.0060                   RIV =     1985303.5669     RIV_0           
                 RIV =     8800808.7520                   RIV =       29007.2800     NYRIV           
                 GHB =   427171013.9037                   GHB =     1341315.8778     GHB-LOWELL      

            TOTAL IN =105725503133.8056              TOTAL IN =   270670187.9491

          OUT:                                     OUT:
          ----                                     ----
              STO-SS = 26209217195.3578                STO-SS =     7649166.5599                     
          DATA-SPDIS =           0.0000            DATA-SPDIS =           0.0000     NPF             
                 WEL =           0.0000                   WEL =           0.0000     WEL-NY_CANAL    
                 WEL =           0.0000                   WEL =           0.0000     WEL-TRIB_UND    
                 WEL =           0.0000                   WEL =           0.0000     WEL-TRIB_UND_DP 
                 WEL =  1511421273.2873                   WEL =     2685872.9148     WEL-MUNI_MEAS   
                 WEL =    33211763.4139                   WEL =       76754.6485     WEL-PUMP_XTRA   
                 WEL =  6405926675.0592                   WEL =    45792353.9908     WEL-PUMP_IRR    
                 WEL =  2452862930.3876                   WEL =    13409524.5310     WEL-PUMP_SEMI   
                 WEL =      128573.4701                   WEL =        2019.4236     WEL-INFIL_IRR   
                 WEL =      332786.1162                   WEL =        1484.1749     WEL-INFIL_SEMI  
                 WEL =           0.0000                   WEL =           0.0000     WEL-CANAL_B     
                 WEL =           0.0000                   WEL =           0.0000     WEL-CANAL_A     
                 DRN = 32849107650.5187                   DRN =    97499152.5717     DRN_0           
                 RIV = 36263049011.1482                   RIV =   103553655.5119     RIV_0           
                 RIV =           0.0000                   RIV =           0.0000     NYRIV           
                 GHB =      245275.7307                   GHB =         203.6226     GHB-LOWELL      

           TOTAL OUT =105725503134.4898             TOTAL OUT =   270670187.9497

            IN - OUT =          -0.6842              IN - OUT =      -5.7232E-04

 PERCENT DISCREPANCY =          -0.00     PERCENT DISCREPANCY =          -0.00


Reading records from budget file
    364.400              STO-SS                 
    364.400        FLOW-JA-FACE                 
    364.400          DATA-SPDIS NPF             
    364.400                 WEL WEL-NY_CANAL    
    364.400                 WEL WEL-TRIB_UND    
    364.400                 WEL WEL-TRIB_UND_DP 
    364.400                 WEL WEL-MUNI_MEAS   
    364.400                 WEL WEL-PUMP_XTRA   
    364.400                 WEL WEL-PUMP_IRR    
    364.400                 WEL WEL-PUMP_SEMI   
    364.400                 WEL WEL-INFIL_IRR   
    364.400                 WEL WEL-INFIL_SEMI  
    364.400                 WEL WEL-CANAL_B     
    364.400                 WEL WEL-CANAL_A     
    364.400                 DRN DRN_0           
    364.400                 RIV RIV_0           
    364.400                 RIV NYRIV           
    364.400                 GHB GHB-LOWELL      
Done reading records from budget file


  VOLUME BUDGET FOR ZONE 1 AT END OF TIME STEP    1, STRESS PERIOD  12
  ---------------------------------------------------------------------------------------------------

     CUMULATIVE VOLUME      L**3       RATES FOR THIS TIME STEP      L**3/T          PACKAGE/MODEL   
     ------------------                 ------------------------                     ----------------

           IN:                                      IN:
           ---                                      ---
              STO-SS = 28395207775.8482                STO-SS =   181503384.4036                     
          DATA-SPDIS =           0.0000            DATA-SPDIS =           0.0000     NPF             
                 WEL = 23975410388.0585                   WEL =           0.0000     WEL-NY_CANAL    
                 WEL =  3319679990.0750                   WEL =     6158746.5913     WEL-TRIB_UND    
                 WEL =    42194284.5254                   WEL =      115791.1211     WEL-TRIB_UND_DP 
                 WEL =           0.0000                   WEL =           0.0000     WEL-MUNI_MEAS   
                 WEL =     2052350.6363                   WEL =           0.0000     WEL-PUMP_XTRA   
                 WEL =           0.0000                   WEL =           0.0000     WEL-PUMP_IRR    
                 WEL =           0.0000                   WEL =           0.0000     WEL-PUMP_SEMI   
                 WEL = 26649231985.9587                   WEL =           0.0000     WEL-INFIL_IRR   
                 WEL =  4300986462.5780                   WEL =           0.0000     WEL-INFIL_SEMI  
                 WEL = 18770702973.7747                   WEL =           0.0000     WEL-CANAL_B     
                 WEL =  4693702817.1682                   WEL =           0.0000     WEL-CANAL_A     
                 DRN =           0.0000                   DRN =           0.0000     DRN_0           
                 RIV =   960044482.3420                   RIV =     6211484.5445     RIV_0           
                 RIV =     8800808.7520                   RIV =           0.0000     NYRIV           
                 GHB =   467754334.4921                   GHB =     1352777.3529     GHB-LOWELL      

            TOTAL IN =111585768654.2091              TOTAL IN =   195342184.0135

          OUT:                                     OUT:
          ----                                     ----
              STO-SS = 26948145923.2046                STO-SS =    24630957.5949                     
          DATA-SPDIS =           0.0000            DATA-SPDIS =           0.0000     NPF             
                 WEL =           0.0000                   WEL =           0.0000     WEL-NY_CANAL    
                 WEL =           0.0000                   WEL =           0.0000     WEL-TRIB_UND    
                 WEL =           0.0000                   WEL =           0.0000     WEL-TRIB_UND_DP 
                 WEL =  1576233617.9604                   WEL =     2160411.4891     WEL-MUNI_MEAS   
                 WEL =    35589111.6067                   WEL =       79244.9398     WEL-PUMP_XTRA   
                 WEL =  6405926675.0592                   WEL =           0.0000     WEL-PUMP_IRR    
                 WEL =  2452862930.3876                   WEL =           0.0000     WEL-PUMP_SEMI   
                 WEL =      128573.4701                   WEL =           0.0000     WEL-INFIL_IRR   
                 WEL =      332786.1162                   WEL =           0.0000     WEL-INFIL_SEMI  
                 WEL =           0.0000                   WEL =           0.0000     WEL-CANAL_B     
                 WEL =           0.0000                   WEL =           0.0000     WEL-CANAL_A     
                 DRN = 35375850457.7648                   DRN =    84224760.2415     DRN_0           
                 RIV = 38790447819.0019                   RIV =    84246626.9285     RIV_0           
                 RIV =           0.0000                   RIV =           0.0000     NYRIV           
                 GHB =      250760.3954                   GHB =         182.8222     GHB-LOWELL      

           TOTAL OUT =111585768654.9668             TOTAL OUT =   195342184.0159

            IN - OUT =          -0.7577              IN - OUT =      -2.4515E-03

 PERCENT DISCREPANCY =          -0.00     PERCENT DISCREPANCY =          -0.00


Reading records from budget file
    395.400              STO-SS                 
    395.400        FLOW-JA-FACE                 
    395.400          DATA-SPDIS NPF             
    395.400                 WEL WEL-NY_CANAL    
    395.400                 WEL WEL-TRIB_UND    
    395.400                 WEL WEL-TRIB_UND_DP 
    395.400                 WEL WEL-MUNI_MEAS   
    395.400                 WEL WEL-PUMP_XTRA   
    395.400                 WEL WEL-PUMP_IRR    
    395.400                 WEL WEL-PUMP_SEMI   
    395.400                 WEL WEL-INFIL_IRR   
    395.400                 WEL WEL-INFIL_SEMI  
    395.400                 WEL WEL-CANAL_B     
    395.400                 WEL WEL-CANAL_A     
    395.400                 DRN DRN_0           
    395.400                 RIV RIV_0           
    395.400                 RIV NYRIV           
    395.400                 GHB GHB-LOWELL      
Done reading records from budget file


  VOLUME BUDGET FOR ZONE 1 AT END OF TIME STEP    1, STRESS PERIOD  13
  ---------------------------------------------------------------------------------------------------

     CUMULATIVE VOLUME      L**3       RATES FOR THIS TIME STEP      L**3/T          PACKAGE/MODEL   
     ------------------                 ------------------------                     ----------------

           IN:                                      IN:
           ---                                      ---
              STO-SS = 33688112052.8604                STO-SS =   170738847.6456                     
          DATA-SPDIS =           0.0000            DATA-SPDIS =           0.0000     NPF             
                 WEL = 23975410388.0585                   WEL =           0.0000     WEL-NY_CANAL    
                 WEL =  3363865552.7627                   WEL =     1425340.7319     WEL-TRIB_UND    
                 WEL =    45783809.2792                   WEL =      115791.1211     WEL-TRIB_UND_DP 
                 WEL =           0.0000                   WEL =           0.0000     WEL-MUNI_MEAS   
                 WEL =     2052350.6363                   WEL =           0.0000     WEL-PUMP_XTRA   
                 WEL =           0.0000                   WEL =           0.0000     WEL-PUMP_IRR    
                 WEL =           0.0000                   WEL =           0.0000     WEL-PUMP_SEMI   
                 WEL = 26649231985.9587                   WEL =           0.0000     WEL-INFIL_IRR   
                 WEL =  4300986462.5780                   WEL =           0.0000     WEL-INFIL_SEMI  
                 WEL = 18770702973.7747                   WEL =           0.0000     WEL-CANAL_B     
                 WEL =  4693702817.1682                   WEL =           0.0000     WEL-CANAL_A     
                 DRN =           0.0000                   DRN =           0.0000     DRN_0           
                 RIV =  1031893840.7220                   RIV =     2317721.2381     RIV_0           
                 RIV =     8800808.7520                   RIV =           0.0000     NYRIV           
                 GHB =   510000733.7825                   GHB =     1362787.0739     GHB-LOWELL      

            TOTAL IN =117040543776.3332              TOTAL IN =   175960487.8105

          OUT:                                     OUT:
          ----                                     ----
              STO-SS = 27199347272.4187                STO-SS =     8103269.3295                     
          DATA-SPDIS =           0.0000            DATA-SPDIS =           0.0000     NPF             
                 WEL =           0.0000                   WEL =           0.0000     WEL-NY_CANAL    
                 WEL =           0.0000                   WEL =           0.0000     WEL-TRIB_UND    
                 WEL =           0.0000                   WEL =           0.0000     WEL-TRIB_UND_DP 
                 WEL =  1639196361.7814                   WEL =     2031056.2523     WEL-MUNI_MEAS   
                 WEL =    37967482.7547                   WEL =       76721.6499     WEL-PUMP_XTRA   
                 WEL =  6405926675.0592                   WEL =           0.0000     WEL-PUMP_IRR    
                 WEL =  2452862930.3876                   WEL =           0.0000     WEL-PUMP_SEMI   
                 WEL =      128573.4701                   WEL =           0.0000     WEL-INFIL_IRR   
                 WEL =      332786.1162                   WEL =           0.0000     WEL-INFIL_SEMI  
                 WEL =           0.0000                   WEL =           0.0000     WEL-CANAL_B     
                 WEL =           0.0000                   WEL =           0.0000     WEL-CANAL_A     
                 DRN = 37738212041.2006                   DRN =    76205212.3689     DRN_0           
                 RIV = 41566313806.0683                   RIV =    89544064.0989     RIV_0           
                 RIV =           0.0000                   RIV =           0.0000     NYRIV           
                 GHB =      255847.9755                   GHB =         164.1155     GHB-LOWELL      

           TOTAL OUT =117040543777.2325             TOTAL OUT =   175960487.8150

            IN - OUT =          -0.8993              IN - OUT =      -4.5666E-03

 PERCENT DISCREPANCY =          -0.00     PERCENT DISCREPANCY =          -0.00


Reading records from budget file
    426.400              STO-SS                 
    426.400        FLOW-JA-FACE                 
    426.400          DATA-SPDIS NPF             
    426.400                 WEL WEL-NY_CANAL    
    426.400                 WEL WEL-TRIB_UND    
    426.400                 WEL WEL-TRIB_UND_DP 
    426.400                 WEL WEL-MUNI_MEAS   
    426.400                 WEL WEL-PUMP_XTRA   
    426.400                 WEL WEL-PUMP_IRR    
    426.400                 WEL WEL-PUMP_SEMI   
    426.400                 WEL WEL-INFIL_IRR   
    426.400                 WEL WEL-INFIL_SEMI  
    426.400                 WEL WEL-CANAL_B     
    426.400                 WEL WEL-CANAL_A     
    426.400                 DRN DRN_0           
    426.400                 RIV RIV_0           
    426.400                 RIV NYRIV           
    426.400                 GHB GHB-LOWELL      
Done reading records from budget file


  VOLUME BUDGET FOR ZONE 1 AT END OF TIME STEP    1, STRESS PERIOD  14
  ---------------------------------------------------------------------------------------------------

     CUMULATIVE VOLUME      L**3       RATES FOR THIS TIME STEP      L**3/T          PACKAGE/MODEL   
     ------------------                 ------------------------                     ----------------

           IN:                                      IN:
           ---                                      ---
              STO-SS = 38355894277.0949                STO-SS =   150573620.1366                     
          DATA-SPDIS =           0.0000            DATA-SPDIS =           0.0000     NPF             
                 WEL = 23978629044.6778                   WEL =      103827.6329     WEL-NY_CANAL    
                 WEL =  3621885207.1624                   WEL =     8323214.6581     WEL-TRIB_UND    
                 WEL =    49373334.0330                   WEL =      115791.1211     WEL-TRIB_UND_DP 
                 WEL =           0.0000                   WEL =           0.0000     WEL-MUNI_MEAS   
                 WEL =     2052350.6363                   WEL =           0.0000     WEL-PUMP_XTRA   
                 WEL =           0.0000                   WEL =           0.0000     WEL-PUMP_IRR    
                 WEL =           0.0000                   WEL =           0.0000     WEL-PUMP_SEMI   
                 WEL = 26649231985.9587                   WEL =           0.0000     WEL-INFIL_IRR   
                 WEL =  4300986462.5780                   WEL =           0.0000     WEL-INFIL_SEMI  
                 WEL = 18770702973.7747                   WEL =           0.0000     WEL-CANAL_B     
                 WEL =  4693702817.1682                   WEL =           0.0000     WEL-CANAL_A     
                 DRN =           0.0000                   DRN =           0.0000     DRN_0           
                 RIV =  1102267554.0905                   RIV =     2270119.7861     RIV_0           
                 RIV =     8800808.7520                   RIV =           0.0000     NYRIV           
                 GHB =   552593580.3554                   GHB =     1373962.7927     GHB-LOWELL      

            TOTAL IN =122086120396.2819              TOTAL IN =   162760536.1274

          OUT:                                     OUT:
          ----                                     ----
              STO-SS = 27354881948.7939                STO-SS =     5017247.6250                     
          DATA-SPDIS =           0.0000            DATA-SPDIS =           0.0000     NPF             
                 WEL =           0.0000                   WEL =           0.0000     WEL-NY_CANAL    
                 WEL =           0.0000                   WEL =           0.0000     WEL-TRIB_UND    
                 WEL =           0.0000                   WEL =           0.0000     WEL-TRIB_UND_DP 
                 WEL =  1703778908.2568                   WEL =     2083307.9508     WEL-MUNI_MEAS   
                 WEL =    40349141.9735                   WEL =       76827.7167     WEL-PUMP_XTRA   
                 WEL =  6405926675.0592                   WEL =           0.0000     WEL-PUMP_IRR    
                 WEL =  2452862930.3876                   WEL =           0.0000     WEL-PUMP_SEMI   
                 WEL =      128573.4701                   WEL =           0.0000     WEL-INFIL_IRR   
                 WEL =      332786.1162                   WEL =           0.0000     WEL-INFIL_SEMI  
                 WEL =           0.0000                   WEL =           0.0000     WEL-CANAL_B     
                 WEL =           0.0000                   WEL =           0.0000     WEL-CANAL_A     
                 DRN = 39929875501.6733                   DRN =    70698821.3056     DRN_0           
                 RIV = 44197723565.1630                   RIV =    84884185.7772     RIV_0           
                 RIV =           0.0000                   RIV =           0.0000     NYRIV           
                 GHB =      260366.3338                   GHB =         145.7535     GHB-LOWELL      

           TOTAL OUT =122086120397.2274             TOTAL OUT =   162760536.1289

            IN - OUT =          -0.9455              IN - OUT =      -1.4918E-03

 PERCENT DISCREPANCY =          -0.00     PERCENT DISCREPANCY =          -0.00


Reading records from budget file
    454.400              STO-SS                 
    454.400        FLOW-JA-FACE                 
    454.400          DATA-SPDIS NPF             
    454.400                 WEL WEL-NY_CANAL    
    454.400                 WEL WEL-TRIB_UND    
    454.400                 WEL WEL-TRIB_UND_DP 
    454.400                 WEL WEL-MUNI_MEAS   
    454.400                 WEL WEL-PUMP_XTRA   
    454.400                 WEL WEL-PUMP_IRR    
    454.400                 WEL WEL-PUMP_SEMI   
    454.400                 WEL WEL-INFIL_IRR   
    454.400                 WEL WEL-INFIL_SEMI  
    454.400                 WEL WEL-CANAL_B     
    454.400                 WEL WEL-CANAL_A     
    454.400                 DRN DRN_0           
    454.400                 RIV RIV_0           
    454.400                 RIV NYRIV           
    454.400                 GHB GHB-LOWELL      
Done reading records from budget file


  VOLUME BUDGET FOR ZONE 1 AT END OF TIME STEP    1, STRESS PERIOD  15
  ---------------------------------------------------------------------------------------------------

     CUMULATIVE VOLUME      L**3       RATES FOR THIS TIME STEP      L**3/T          PACKAGE/MODEL   
     ------------------                 ------------------------                     ----------------

           IN:                                      IN:
           ---                                      ---
[...]
          DATA-SPDIS =           0.0000            DATA-SPDIS =           0.0000     NPF             
                 WEL =533134118610.5002                   WEL =    79283893.3948     WEL-NY_CANAL    
                 WEL = 83726513406.4509                   WEL =     3956697.5145     WEL-TRIB_UND    
                 WEL =  1261590580.7290                   WEL =      115791.1211     WEL-TRIB_UND_DP 
                 WEL =           0.0000                   WEL =           0.0000     WEL-MUNI_MEAS   
                 WEL =   594437116.5252                   WEL =       73301.7921     WEL-PUMP_XTRA   
                 WEL =           0.0000                   WEL =           0.0000     WEL-PUMP_IRR    
                 WEL =           0.0000                   WEL =           0.0000     WEL-PUMP_SEMI   
                 WEL =640864665409.2931                   WEL =    82366492.2637     WEL-INFIL_IRR   
                 WEL =135907377807.1266                   WEL =    25413028.0618     WEL-INFIL_SEMI  
                 WEL =448505286655.1735                   WEL =    55510047.8780     WEL-CANAL_B     
                 WEL =112150077673.7695                   WEL =    13880166.1286     WEL-CANAL_A     
                 DRN =           0.0000                   DRN =           0.0000     DRN_0           
                 RIV = 31472775916.3803                   RIV =     1751196.5844     RIV_0           
                 RIV =   219277632.4320                   RIV =       29007.2800     NYRIV           
                 GHB = 20921118280.6267                   GHB =     2217478.2493     GHB-LOWELL      

            TOTAL IN =       2.8491E+12              TOTAL IN =   292441152.0625

          OUT:                                     OUT:
          ----                                     ----
              STO-SS =718814753410.8971                STO-SS =    48287540.6656                     
          DATA-SPDIS =           0.0000            DATA-SPDIS =           0.0000     NPF             
                 WEL =           0.0000                   WEL =           0.0000     WEL-NY_CANAL    
                 WEL =           0.0000                   WEL =           0.0000     WEL-TRIB_UND    
                 WEL =           0.0000                   WEL =           0.0000     WEL-TRIB_UND_DP 
                 WEL = 63696290133.0827                   WEL =    11473005.9426     WEL-MUNI_MEAS   
                 WEL =  2537593529.8014                   WEL =      222915.4382     WEL-PUMP_XTRA   
                 WEL =222114649151.0663                   WEL =    34855531.3228     WEL-PUMP_IRR    
                 WEL = 95558120178.7768                   WEL =    14364187.1118     WEL-PUMP_SEMI   
                 WEL =     2057840.3967                   WEL =           0.0000     WEL-INFIL_IRR   
                 WEL =    11511061.2081                   WEL =           0.0000     WEL-INFIL_SEMI  
                 WEL =           0.0000                   WEL =           0.0000     WEL-CANAL_B     
                 WEL =           0.0000                   WEL =           0.0000     WEL-CANAL_A     
                 DRN =760597695413.1139                   DRN =    77261479.1654     DRN_0           
                 RIV =985755129753.5416                   RIV =   105976492.4184     RIV_0           
                 RIV =           0.0000                   RIV =           0.0000     NYRIV           
                 GHB =      319320.4492                   GHB =           0.0000     GHB-LOWELL      

           TOTAL OUT =       2.8491E+12             TOTAL OUT =   292441152.0648

            IN - OUT =         -28.1885              IN - OUT =      -2.3398E-03

 PERCENT DISCREPANCY =          -0.00     PERCENT DISCREPANCY =          -0.00


Reading records from budget file
    10926.4              STO-SS                 
    10926.4        FLOW-JA-FACE                 
    10926.4          DATA-SPDIS NPF             
    10926.4                 WEL WEL-NY_CANAL    
    10926.4                 WEL WEL-TRIB_UND    
    10926.4                 WEL WEL-TRIB_UND_DP 
    10926.4                 WEL WEL-MUNI_MEAS   
    10926.4                 WEL WEL-PUMP_XTRA   
    10926.4                 WEL WEL-PUMP_IRR    
    10926.4                 WEL WEL-PUMP_SEMI   
    10926.4                 WEL WEL-INFIL_IRR   
    10926.4                 WEL WEL-INFIL_SEMI  
    10926.4                 WEL WEL-CANAL_B     
    10926.4                 WEL WEL-CANAL_A     
    10926.4                 DRN DRN_0           
    10926.4                 RIV RIV_0           
    10926.4                 RIV NYRIV           
    10926.4                 GHB GHB-LOWELL      
Done reading records from budget file


  VOLUME BUDGET FOR ZONE 1 AT END OF TIME STEP    1, STRESS PERIOD 359
  ---------------------------------------------------------------------------------------------------

     CUMULATIVE VOLUME      L**3       RATES FOR THIS TIME STEP      L**3/T          PACKAGE/MODEL   
     ------------------                 ------------------------                     ----------------

           IN:                                      IN:
           ---                                      ---
              STO-SS =843936974328.4650                STO-SS =   116325601.7202                     
          DATA-SPDIS =           0.0000            DATA-SPDIS =           0.0000     NPF             
                 WEL =533481240071.1298                   WEL =    11197466.4719     WEL-NY_CANAL    
                 WEL = 83935141523.7822                   WEL =     6729939.2688     WEL-TRIB_UND    
                 WEL =  1265180105.4828                   WEL =      115791.1211     WEL-TRIB_UND_DP 
                 WEL =           0.0000                   WEL =           0.0000     WEL-MUNI_MEAS   
                 WEL =   596638062.7618                   WEL =       70998.2657     WEL-PUMP_XTRA   
                 WEL =           0.0000                   WEL =           0.0000     WEL-PUMP_IRR    
                 WEL =           0.0000                   WEL =           0.0000     WEL-PUMP_SEMI   
                 WEL =642284083240.4486                   WEL =    45787671.9728     WEL-INFIL_IRR   
                 WEL =136259458557.8891                   WEL =    11357443.5730     WEL-INFIL_SEMI  
                 WEL =449189010317.3201                   WEL =    22055602.0047     WEL-CANAL_B     
                 WEL =112321041834.5576                   WEL =     5514972.9286     WEL-CANAL_A     
                 DRN =           0.0000                   DRN =           0.0000     DRN_0           
                 RIV = 31532944316.8086                   RIV =     1940916.1428     RIV_0           
                 RIV =   220176858.1120                   RIV =       29007.2800     NYRIV           
                 GHB = 20996701782.2836                   GHB =     2438177.4728     GHB-LOWELL      

            TOTAL IN =       2.8560E+12              TOTAL IN =   223563588.2224

          OUT:                                     OUT:
          ----                                     ----
              STO-SS =719325337367.2571                STO-SS =    16470450.2052                     
          DATA-SPDIS =           0.0000            DATA-SPDIS =           0.0000     NPF             
                 WEL =           0.0000                   WEL =           0.0000     WEL-NY_CANAL    
                 WEL =           0.0000                   WEL =           0.0000     WEL-TRIB_UND    
                 WEL =           0.0000                   WEL =           0.0000     WEL-TRIB_UND_DP 
                 WEL = 63931953805.3153                   WEL =     7602053.9430     WEL-MUNI_MEAS   
                 WEL =  2544286748.0798                   WEL =      215910.2670     WEL-PUMP_XTRA   
                 WEL =223016451096.3428                   WEL =    29090385.3315     WEL-PUMP_IRR    
                 WEL = 95922538814.3015                   WEL =    11755439.8556     WEL-PUMP_SEMI   
                 WEL =     2057840.3967                   WEL =           0.0000     WEL-INFIL_IRR   
                 WEL =    11511061.2081                   WEL =           0.0000     WEL-INFIL_SEMI  
                 WEL =           0.0000                   WEL =           0.0000     WEL-CANAL_B     
                 WEL =           0.0000                   WEL =           0.0000     WEL-CANAL_A     
                 DRN =762643372257.8146                   DRN =    65989575.6355     DRN_0           
                 RIV =988620762716.2461                   RIV =    92439772.9905     RIV_0           
                 RIV =           0.0000                   RIV =           0.0000     NYRIV           
                 GHB =      319320.4492                   GHB =           0.0000     GHB-LOWELL      

           TOTAL OUT =       2.8560E+12             TOTAL OUT =   223563588.2283

            IN - OUT =         -28.3696              IN - OUT =      -5.8537E-03

 PERCENT DISCREPANCY =          -0.00     PERCENT DISCREPANCY =          -0.00


Reading records from budget file
    10956.4              STO-SS                 
    10956.4        FLOW-JA-FACE                 
    10956.4          DATA-SPDIS NPF             
    10956.4                 WEL WEL-NY_CANAL    
    10956.4                 WEL WEL-TRIB_UND    
    10956.4                 WEL WEL-TRIB_UND_DP 
    10956.4                 WEL WEL-MUNI_MEAS   
    10956.4                 WEL WEL-PUMP_XTRA   
    10956.4                 WEL WEL-PUMP_IRR    
    10956.4                 WEL WEL-PUMP_SEMI   
    10956.4                 WEL WEL-INFIL_IRR   
    10956.4                 WEL WEL-INFIL_SEMI  
    10956.4                 WEL WEL-CANAL_B     
    10956.4                 WEL WEL-CANAL_A     
    10956.4                 DRN DRN_0           
    10956.4                 RIV RIV_0           
    10956.4                 RIV NYRIV           
    10956.4                 GHB GHB-LOWELL      
Done reading records from budget file


  VOLUME BUDGET FOR ZONE 1 AT END OF TIME STEP    1, STRESS PERIOD 360
  ---------------------------------------------------------------------------------------------------

     CUMULATIVE VOLUME      L**3       RATES FOR THIS TIME STEP      L**3/T          PACKAGE/MODEL   
     ------------------                 ------------------------                     ----------------

           IN:                                      IN:
           ---                                      ---
              STO-SS =848302342003.4709                STO-SS =   145512255.8335                     
          DATA-SPDIS =           0.0000            DATA-SPDIS =           0.0000     NPF             
                 WEL =533481240071.1298                   WEL =           0.0000     WEL-NY_CANAL    
                 WEL = 84245389181.7345                   WEL =    10341588.5984     WEL-TRIB_UND    
                 WEL =  1268653839.1156                   WEL =      115791.1211     WEL-TRIB_UND_DP 
                 WEL =           0.0000                   WEL =           0.0000     WEL-MUNI_MEAS   
                 WEL =   598839697.1704                   WEL =       73387.8136     WEL-PUMP_XTRA   
                 WEL =           0.0000                   WEL =           0.0000     WEL-PUMP_IRR    
                 WEL =           0.0000                   WEL =           0.0000     WEL-PUMP_SEMI   
                 WEL =642284083240.4486                   WEL =           0.0000     WEL-INFIL_IRR   
                 WEL =136259458557.8891                   WEL =           0.0000     WEL-INFIL_SEMI  
                 WEL =449242564574.3906                   WEL =     1785141.9023     WEL-CANAL_B     
                 WEL =112334433344.4366                   WEL =      446383.6626     WEL-CANAL_A     
                 DRN =           0.0000                   DRN =           0.0000     DRN_0           
                 RIV = 31630080778.3757                   RIV =     3237882.0522     RIV_0           
                 RIV =   220176858.1120                   RIV =           0.0000     NYRIV           
                 GHB = 21069583104.4845                   GHB =     2429377.4067     GHB-LOWELL      

            TOTAL IN =       2.8609E+12              TOTAL IN =   163941808.3906

          OUT:                                     OUT:
          ----                                     ----
              STO-SS =720086581269.9414                STO-SS =    25374796.7561                     
          DATA-SPDIS =           0.0000            DATA-SPDIS =           0.0000     NPF             
                 WEL =           0.0000                   WEL =           0.0000     WEL-NY_CANAL    
                 WEL =           0.0000                   WEL =           0.0000     WEL-TRIB_UND    
                 WEL =           0.0000                   WEL =           0.0000     WEL-TRIB_UND_DP 
                 WEL = 64037867418.3782                   WEL =     3530453.7688     WEL-MUNI_MEAS   
                 WEL =  2550974211.2263                   WEL =      222915.4382     WEL-PUMP_XTRA   
                 WEL =223016451096.3428                   WEL =           0.0000     WEL-PUMP_IRR    
                 WEL = 95922538814.3015                   WEL =           0.0000     WEL-PUMP_SEMI   
                 WEL =     2057840.3967                   WEL =           0.0000     WEL-INFIL_IRR   
                 WEL =    11511061.2081                   WEL =           0.0000     WEL-INFIL_SEMI  
                 WEL =           0.0000                   WEL =           0.0000     WEL-CANAL_B     
                 WEL =           0.0000                   WEL =           0.0000     WEL-CANAL_A     
                 DRN =764329519653.0612                   DRN =    56204913.1749     DRN_0           
                 RIV =990979024593.9210                   RIV =    78608729.2558     RIV_0           
                 RIV =           0.0000                   RIV =           0.0000     NYRIV           
                 GHB =      319320.4492                   GHB =           0.0000     GHB-LOWELL      

           TOTAL OUT =       2.8609E+12             TOTAL OUT =   163941808.3938

            IN - OUT =         -28.4683              IN - OUT =      -3.2696E-03

 PERCENT DISCREPANCY =          -0.00     PERCENT DISCREPANCY =          -0.00


Reading records from budget file
    10987.4              STO-SS                 
    10987.4        FLOW-JA-FACE                 
    10987.4          DATA-SPDIS NPF             
    10987.4                 WEL WEL-NY_CANAL    
    10987.4                 WEL WEL-TRIB_UND    
    10987.4                 WEL WEL-TRIB_UND_DP 
    10987.4                 WEL WEL-MUNI_MEAS   
    10987.4                 WEL WEL-PUMP_XTRA   
    10987.4                 WEL WEL-PUMP_IRR    
    10987.4                 WEL WEL-PUMP_SEMI   
    10987.4                 WEL WEL-INFIL_IRR   
    10987.4                 WEL WEL-INFIL_SEMI  
    10987.4                 WEL WEL-CANAL_B     
    10987.4                 WEL WEL-CANAL_A     
    10987.4                 DRN DRN_0           
    10987.4                 RIV RIV_0           
    10987.4                 RIV NYRIV           
    10987.4                 GHB GHB-LOWELL      
Done reading records from budget file


  VOLUME BUDGET FOR ZONE 1 AT END OF TIME STEP    1, STRESS PERIOD 361
  ---------------------------------------------------------------------------------------------------

     CUMULATIVE VOLUME      L**3       RATES FOR THIS TIME STEP      L**3/T          PACKAGE/MODEL   
     ------------------                 ------------------------                     ----------------

           IN:                                      IN:
           ---                                      ---
              STO-SS =852175642892.5670                STO-SS =   124945189.9708                     
          DATA-SPDIS =           0.0000            DATA-SPDIS =           0.0000     NPF             
                 WEL =533481240071.1298                   WEL =           0.0000     WEL-NY_CANAL    
                 WEL = 85045923936.3802                   WEL =    25823701.7628     WEL-TRIB_UND    
                 WEL =  1272243363.8694                   WEL =      115791.1211     WEL-TRIB_UND_DP 
                 WEL =           0.0000                   WEL =           0.0000     WEL-MUNI_MEAS   
                 WEL =   601239697.1704                   WEL =       77419.3548     WEL-PUMP_XTRA   
                 WEL =           0.0000                   WEL =           0.0000     WEL-PUMP_IRR    
                 WEL =           0.0000                   WEL =           0.0000     WEL-PUMP_SEMI   
                 WEL =642284083240.4486                   WEL =           0.0000     WEL-INFIL_IRR   
                 WEL =136259458557.8891                   WEL =           0.0000     WEL-INFIL_SEMI  
                 WEL =449248743101.4161                   WEL =      199307.3234     WEL-CANAL_B     
                 WEL =112335978315.8842                   WEL =       49837.7886     WEL-CANAL_A     
                 DRN =           0.0000                   DRN =           0.0000     DRN_0           
                 RIV = 31736926128.0812                   RIV =     3446624.1840     RIV_0           
                 RIV =   220176858.1120                   RIV =           0.0000     NYRIV           
                 GHB = 21144548713.9185                   GHB =     2418245.4656     GHB-LOWELL      

            TOTAL IN =       2.8658E+12              TOTAL IN =   157076116.9712

          OUT:                                     OUT:
          ----                                     ----
              STO-SS =720853808869.8179                STO-SS =    24749277.4154                     
          DATA-SPDIS =           0.0000            DATA-SPDIS =           0.0000     NPF             
                 WEL =           0.0000                   WEL =           0.0000     WEL-NY_CANAL    
                 WEL =           0.0000                   WEL =           0.0000     WEL-TRIB_UND    
                 WEL =           0.0000                   WEL =           0.0000     WEL-TRIB_UND_DP 
                 WEL = 64163778071.5529                   WEL =     4061633.9734     WEL-MUNI_MEAS   
                 WEL =  2557664551.9388                   WEL =      215817.4423     WEL-PUMP_XTRA   
                 WEL =223016451096.3428                   WEL =           0.0000     WEL-PUMP_IRR    
                 WEL = 95922538814.3015                   WEL =           0.0000     WEL-PUMP_SEMI   
                 WEL =     2057840.3967                   WEL =           0.0000     WEL-INFIL_IRR   
                 WEL =    11511061.2081                   WEL =           0.0000     WEL-INFIL_SEMI  
                 WEL =           0.0000                   WEL =           0.0000     WEL-CANAL_B     
                 WEL =           0.0000                   WEL =           0.0000     WEL-CANAL_A     
                 DRN =765924852609.6139                   DRN =    51462353.4372     DRN_0           
                 RIV =993353222669.8488                   RIV =    76587034.7073     RIV_0           
                 RIV =           0.0000                   RIV =           0.0000     NYRIV           
                 GHB =      319320.4492                   GHB =           0.0000     GHB-LOWELL      

           TOTAL OUT =       2.8658E+12             TOTAL OUT =   157076116.9756

            IN - OUT =         -28.6040              IN - OUT =      -4.3823E-03

 PERCENT DISCREPANCY =          -0.00     PERCENT DISCREPANCY =          -0.00


Reading records from budget file
Done reading records.  Exiting time loop.

Normal Termination
